dss_grid_VLN_Node.Txt

LINE-GROUND and LINE-LINE VOLTAGES BY BUS & NODE

Bus               Node    VLN (kV)   Angle      pu     Base kV    Node-Node   VLL (kV)  Angle      pu

SOURCEBUS ....... 1       11.546 /_    0.0         0     0.000        1-2     19.998 /_   30.0         0
   -              2       11.546 /_ -120.0         0     0.000        2-3     19.998 /_  -90.0         0
   -              3       11.546 /_  120.0         0     0.000        3-1     19.998 /_  150.0         0
UG_BB_20KV ...... 1       11.536 /_    0.0         0     0.000        1-2     19.981 /_   30.0         0
   -              2       11.536 /_ -120.0         0     0.000        2-3     19.981 /_  -90.0         0
   -              3       11.536 /_  120.0         0     0.000        3-1     19.981 /_  150.0         0
UG_BB_2KV ....... 1       1.1491 /_  -30.5         0     0.000        1-2     1.9902 /_   -0.5         0
   -              2       1.1491 /_ -150.5         0     0.000        2-3     1.9902 /_ -120.5         0
   -              3       1.1491 /_   89.5         0     0.000        3-1     1.9902 /_  119.5         0
UG_SERV_BB ...... 1      0.22487 /_  -62.1         0     0.000        1-2    0.38949 /_  -32.1         0
   -              2      0.22487 /_  177.9         0     0.000        2-3    0.38949 /_ -152.1         0
   -              3      0.22487 /_   57.9         0     0.000        3-1    0.38949 /_   87.9         0
UG_BB_LVDC ...... 1      0.86179 /_  -60.5         0     0.000        1-2     1.4927 /_  -30.5         0
   -              2      0.86179 /_  179.5         0     0.000        2-3     1.4927 /_ -150.5         0
   -              3      0.86179 /_   59.5         0     0.000        3-1     1.4927 /_   89.5         0
UGS_BB .......... 1      0.86179 /_  -60.5         0     0.000        1-2     1.4927 /_  -30.5         0
   -              2      0.86179 /_  179.5         0     0.000        2-3     1.4927 /_ -150.5         0
   -              3      0.86179 /_   59.5         0     0.000        3-1     1.4927 /_   89.5         0
UGS_PV_BB ....... 1      0.43089 /_  -90.5         0     0.000        1-2    0.74633 /_  -60.5         0
   -              2      0.43089 /_  149.5         0     0.000        2-3    0.74633 /_  179.5         0
   -              3      0.43089 /_   29.5         0     0.000        3-1    0.74633 /_   59.5         0
RS_BB_20KV ...... 1       11.544 /_    0.0         0     0.000        1-2     19.994 /_   30.0         0
   -              2       11.544 /_ -120.0         0     0.000        2-3     19.994 /_  -90.0         0
   -              3       11.544 /_  120.0         0     0.000        3-1     19.994 /_  150.0         0
RS_BB_04KV ...... 1      0.22802 /_  -31.3         0     0.000        1-2    0.39494 /_   -1.3         0
   -              2      0.22802 /_ -151.3         0     0.000        2-3    0.39494 /_ -121.3         0
   -              3      0.22802 /_   88.7         0     0.000        3-1    0.39494 /_  118.7         0
EV-CHARGE_BB .... 1      0.22766 /_  -31.3         0     0.000        1-2    0.39432 /_   -1.3         0
   -              2      0.22766 /_ -151.3         0     0.000        2-3    0.39432 /_ -121.3         0
   -              3      0.22766 /_   88.7         0     0.000        3-1    0.39432 /_  118.7         0
EV-FAST_BB ...... 1      0.34203 /_   -1.3         0     0.000        1-2    0.59241 /_   28.7         0
   -              2      0.34203 /_ -121.3         0     0.000        2-3    0.59241 /_  -91.3         0
   -              3      0.34203 /_  118.7         0     0.000        3-1    0.59241 /_  148.7         0
EV-FAST-LOAD_NODE 1      0.22802 /_  -31.3         0     0.000        1-2    0.39494 /_   -1.3         0
   -              2      0.22802 /_ -151.3         0     0.000        2-3    0.39494 /_ -121.3         0
   -              3      0.22802 /_   88.7         0     0.000        3-1    0.39494 /_  118.7         0
RES-WPG_BB ...... 1       11.541 /_    0.0         0     0.000        1-2      19.99 /_   30.0         0
   -              2       11.541 /_ -120.0         0     0.000        2-3      19.99 /_  -90.0         0
   -              3       11.541 /_  120.0         0     0.000        3-1      19.99 /_  150.0         0
RES_BB .......... 1      0.22513 /_  -32.0         0     0.000        1-2    0.38994 /_   -2.0         0
   -              2      0.22513 /_ -152.0         0     0.000        2-3    0.38994 /_ -122.0         0
   -              3      0.22513 /_   88.0         0     0.000        3-1    0.38994 /_  118.0         0
USER_BB ......... 1      0.21994 /_  -32.3         0     0.000        1-2    0.38094 /_   -2.3         0
   -              2      0.21994 /_ -152.3         0     0.000        2-3    0.38094 /_ -122.3         0
   -              3      0.21994 /_   87.7         0     0.000        3-1    0.38094 /_  117.7         0
PROS_BB ......... 1      0.22303 /_  -32.1         0     0.000        1-2     0.3863 /_   -2.1         0
   -              2      0.22303 /_ -152.1         0     0.000        2-3     0.3863 /_ -122.1         0
   -              3      0.22303 /_   87.9         0     0.000        3-1     0.3863 /_  117.9         0
PROS_BB_DC1 ..... 1      0.33454 /_   -2.1         0     0.000        1-2    0.57945 /_   27.9         0
   -              2      0.33454 /_ -122.1         0     0.000        2-3    0.57945 /_  -92.1         0
   -              3      0.33454 /_  117.9         0     0.000        3-1    0.57945 /_  147.9         0
PROS_BB_DC2 ..... 1      0.33454 /_   -2.1         0     0.000        1-2    0.57945 /_   27.9         0
   -              2      0.33454 /_ -122.1         0     0.000        2-3    0.57945 /_  -92.1         0
   -              3      0.33454 /_  117.9         0     0.000        3-1    0.57945 /_  147.9         0
WPG_BB1 ......... 1       1.1604 /_  -29.7         0     0.000        1-2     2.0099 /_    0.3         0
   -              2       1.1604 /_ -149.7         0     0.000        2-3     2.0099 /_ -119.7         0
   -              3       1.1604 /_   90.3         0     0.000        3-1     2.0099 /_  120.3         0
WPG_BB2 ......... 1       1.1717 /_  -29.4         0     0.000        1-2     2.0295 /_    0.6         0
   -              2       1.1717 /_ -149.4         0     0.000        2-3     2.0295 /_ -119.4         0
   -              3       1.1717 /_   90.6         0     0.000        3-1     2.0295 /_  120.6         0
WPG_PV_BB ....... 1      0.34813 /_  -59.7         0     0.000        1-2    0.60298 /_  -29.7         0
   -              2      0.34813 /_ -179.7         0     0.000        2-3    0.60298 /_ -149.7         0
   -              3      0.34813 /_   60.3         0     0.000        3-1    0.60298 /_   90.3         0
